 1000.00  288.00    0.00
   20.00  288.00    0.00    9.91   -1.33
   40.00  288.00    0.00    9.91   -1.33
   60.00  288.00    0.00    9.91   -1.33
   80.00  288.00    0.00    9.91   -1.33
  100.00  288.00    0.00    9.91   -1.33
  120.00  288.00    0.00    9.91   -1.33
  140.00  288.00    0.00    9.91   -1.33
  160.00  288.00    0.00    9.91   -1.33
  180.00  288.00    0.00    9.91   -1.33
  200.00  288.00    0.00    9.91   -1.33
  220.00  288.00    0.00    9.91   -1.33
  240.00  288.00    0.00    9.91   -1.33
  260.00  288.00    0.00    9.91   -1.33
  280.00  288.00    0.00    9.91   -1.33
  300.00  288.00    0.00    9.91   -1.33
  320.00  288.00    0.00    9.91   -1.33
  340.00  288.00    0.00    9.91   -1.33
  360.00  288.00    0.00    9.91   -1.33
  380.00  288.00    0.00    9.91   -1.33
  400.00  288.00    0.00    9.91   -1.33
  420.00  288.00    0.00    9.91   -1.33
  440.00  288.00    0.00    9.91   -1.33
  460.00  288.00    0.00    9.91   -1.33
  480.00  288.00    0.00    9.91   -1.33
  500.00  288.00    0.00    9.91   -1.33
  520.00  288.20    0.00    9.91   -1.33
  540.00  288.40    0.00    9.91   -1.33
  560.00  288.60    0.00    9.91   -1.33
  580.00  288.80    0.00    9.91   -1.33
  600.00  289.00    0.00    9.91   -1.33
  620.00  289.20    0.00    9.91   -1.33
  640.00  289.40    0.00    9.91   -1.33
  660.00  289.60    0.00    9.91   -1.33
  680.00  289.80    0.00    9.91   -1.33
  700.00  290.00    0.00    9.91   -1.33
  720.00  290.20    0.00    9.91   -1.33
  740.00  290.40    0.00    9.91   -1.33
  760.00  290.60    0.00    9.91   -1.33
  780.00  290.80    0.00    9.91   -1.33
  800.00  291.00    0.00    9.91   -1.33
  820.00  291.20    0.00    9.91   -1.33
  840.00  291.40    0.00    9.91   -1.33
  860.00  291.60    0.00    9.91   -1.33
  880.00  291.80    0.00    9.91   -1.33
  900.00  292.00    0.00    9.91   -1.33
  920.00  292.20    0.00    9.91   -1.33
  940.00  292.40    0.00    9.91   -1.33
  960.00  292.60    0.00    9.91   -1.33
  980.00  292.80    0.00    9.91   -1.33
 1000.00  293.00    0.00    9.91   -1.33
 1020.00  293.20    0.00    9.91   -1.33
 1040.00  293.40    0.00    9.91   -1.33
 1060.00  293.60    0.00    9.91   -1.33
 1080.00  293.80    0.00    9.91   -1.33
 1100.00  294.00    0.00    9.91   -1.33
 1120.00  294.20    0.00    9.91   -1.33
 1140.00  294.40    0.00    9.91   -1.33
 1160.00  294.60    0.00    9.91   -1.33
 1180.00  294.80    0.00    9.91   -1.33
 1200.00  295.00    0.00    9.91   -1.33
 1220.00  295.20    0.00    9.91   -1.33
 1240.00  295.40    0.00    9.91   -1.33
 1260.00  295.60    0.00    9.91   -1.33
 1280.00  295.80    0.00    9.91   -1.33
 1300.00  296.00    0.00    9.91   -1.33
 1320.00  296.20    0.00    9.91   -1.33
 1340.00  296.40    0.00    9.91   -1.33
 1360.00  296.60    0.00    9.91   -1.33
 1380.00  296.80    0.00    9.91   -1.33
 1400.00  297.00    0.00    9.91   -1.33
 1420.00  297.20    0.00    9.91   -1.33
 1440.00  297.40    0.00    9.91   -1.33
 1460.00  297.60    0.00    9.91   -1.33
 1480.00  297.80    0.00    9.91   -1.33
 1500.00  298.00    0.00    9.91   -1.33
 1520.00  298.20    0.00    9.91   -1.33
 1540.00  298.40    0.00    9.91   -1.33
 1560.00  298.60    0.00    9.91   -1.33
 1580.00  298.80    0.00    9.91   -1.33
 1600.00  299.00    0.00    9.91   -1.33
 1620.00  299.20    0.00    9.91   -1.33
 1640.00  299.40    0.00    9.91   -1.33
 1660.00  299.60    0.00    9.91   -1.33
 1680.00  299.80    0.00    9.91   -1.33
 1700.00  300.00    0.00    9.91   -1.33
 1720.00  300.20    0.00    9.91   -1.33
 1740.00  300.40    0.00    9.91   -1.33
 1760.00  300.60    0.00    9.91   -1.33
 1780.00  300.80    0.00    9.91   -1.33
 1800.00  301.00    0.00    9.91   -1.33
 1820.00  301.20    0.00    9.91   -1.33
 1840.00  301.40    0.00    9.91   -1.33
 1860.00  301.60    0.00    9.91   -1.33
 1880.00  301.80    0.00    9.91   -1.33
 1900.00  302.00    0.00    9.91   -1.33
 1920.00  302.20    0.00    9.91   -1.33
 1940.00  302.40    0.00    9.91   -1.33
 1960.00  302.60    0.00    9.91   -1.33
 1980.00  302.80    0.00    9.91   -1.33
 2000.00  303.00    0.00    9.91   -1.33
